<configuration>
    <input>
        <net-file value="network/demo_00.net.xml"/>
        <route-files value="routes/demo_00.rou.xml"/>
        <additional-files value="demo_00.add.xml"/>
    </input>
</configuration>
